12
Benzene
C 1.39 0.0 0.0
H 2.48 0.0 0.0
C 0.6950000000000001 1.2037753112603695 0.0
H 1.2400000000000002 2.1477430013854075 0.0
C -0.6949999999999996 1.2037753112603697 0.0
H -1.2399999999999995 2.147743001385408 0.0
C -1.39 1.702259050814821e-16 0.0
H -2.48 3.037124061885436e-16 0.0
C -0.6950000000000006 -1.2037753112603695 0.0
H -1.240000000000001 -2.1477430013854075 0.0
C 0.6950000000000001 -1.2037753112603695 0.0
H 1.2400000000000002 -2.1477430013854075 0.0